* Schmitt Trigger circuit no.2

.model nbjt NPN IS=1e-16 BF=100 BR=1 TE=300

q1 2 5 1 nbjt
q2 3 4 1 nbjt
c1 1 0 0.1
c2 2 0 0.1
c3 3 0 0.1
c4 4 0 0.1
c5 5 0 0.1
rc1 6 2 1.5e3
rc2 6 3 1e3
r1 2 4 10e3
re 1 0 100
r2 5 6 5e3
r3 5 0 1.25e3
r4 4 0 1e6
vcc 6 0 10

.tran 0.001 1e+30

.nodeset v(1)=0 v(2)=0 v(3)=5
* .nodeset v(1)=0 v(2)=5 v(3)=5
* .nodeset v(1)=5 v(2)=0 v(3)=5